LTspice 24.0.11 for Windows
Circuit: * C:\Users\jeron\OneDrive\Documents\GitHub\RTTY\SPICE\Draft1.asc
Start Time: Mon Mar 24 02:00:24 2025
solver = Normal
Maximum thread count: 16
tnom = 27
temp = 27
method = modified trap
Direct Newton iteration for .op point succeeded.
Total elapsed time: 0.131 seconds.

