LTspice 24.0.11 for Windows
Circuit: * C:\Users\jeron\OneDrive\Documents\GitHub\RTTY\SPICE\Draft16.asc
Start Time: Sat Feb 22 22:40:55 2025
solver = Normal
Maximum thread count: 16
tnom = 27
temp = 26.85
method = modified trap
Total elapsed time: 0.113 seconds.

