LTspice 24.0.11 for Windows
Circuit: * C:\Users\jeron\OneDrive\Documents\GitHub\RTTY\SPICE\SecondOrderFilter.asc
Start Time: Sat Feb 22 19:48:54 2025
solver = Normal
Maximum thread count: 16
tnom = 27
temp = 27
method = modified trap
Direct Newton iteration for .op point succeeded.
Total elapsed time: 0.074 seconds.

